$ Spice netlist generated by v2lvs
$ v2019.1_18.11    Thu Jan 10 13:52:35 PST 2019
*.BUSDELIMITER [ 

.SUBCKT FcMain cnnDone ioDone clk reset defaultAddressNeorons[12] 
+ defaultAddressNeorons[11] defaultAddressNeorons[10] defaultAddressNeorons[9] 
+ defaultAddressNeorons[8] defaultAddressNeorons[7] defaultAddressNeorons[6] 
+ defaultAddressNeorons[5] defaultAddressNeorons[4] defaultAddressNeorons[3] 
+ defaultAddressNeorons[2] defaultAddressNeorons[1] defaultAddressNeorons[0] 
+ dmaAddRamNeorons[12] dmaAddRamNeorons[11] dmaAddRamNeorons[10] 
+ dmaAddRamNeorons[9] dmaAddRamNeorons[8] dmaAddRamNeorons[7] 
+ dmaAddRamNeorons[6] dmaAddRamNeorons[5] dmaAddRamNeorons[4] 
+ dmaAddRamNeorons[3] dmaAddRamNeorons[2] dmaAddRamNeorons[1] 
+ dmaAddRamNeorons[0] readRamNeorons finishRamNeorons dataOutRamNeorons[79] 
+ dataOutRamNeorons[78] dataOutRamNeorons[77] dataOutRamNeorons[76] 
+ dataOutRamNeorons[75] dataOutRamNeorons[74] dataOutRamNeorons[73] 
+ dataOutRamNeorons[72] dataOutRamNeorons[71] dataOutRamNeorons[70] 
+ dataOutRamNeorons[69] dataOutRamNeorons[68] dataOutRamNeorons[67] 
+ dataOutRamNeorons[66] dataOutRamNeorons[65] dataOutRamNeorons[64] 
+ dataOutRamNeorons[63] dataOutRamNeorons[62] dataOutRamNeorons[61] 
+ dataOutRamNeorons[60] dataOutRamNeorons[59] dataOutRamNeorons[58] 
+ dataOutRamNeorons[57] dataOutRamNeorons[56] dataOutRamNeorons[55] 
+ dataOutRamNeorons[54] dataOutRamNeorons[53] dataOutRamNeorons[52] 
+ dataOutRamNeorons[51] dataOutRamNeorons[50] dataOutRamNeorons[49] 
+ dataOutRamNeorons[48] dataOutRamNeorons[47] dataOutRamNeorons[46] 
+ dataOutRamNeorons[45] dataOutRamNeorons[44] dataOutRamNeorons[43] 
+ dataOutRamNeorons[42] dataOutRamNeorons[41] dataOutRamNeorons[40] 
+ dataOutRamNeorons[39] dataOutRamNeorons[38] dataOutRamNeorons[37] 
+ dataOutRamNeorons[36] dataOutRamNeorons[35] dataOutRamNeorons[34] 
+ dataOutRamNeorons[33] dataOutRamNeorons[32] dataOutRamNeorons[31] 
+ dataOutRamNeorons[30] dataOutRamNeorons[29] dataOutRamNeorons[28] 
+ dataOutRamNeorons[27] dataOutRamNeorons[26] dataOutRamNeorons[25] 
+ dataOutRamNeorons[24] dataOutRamNeorons[23] dataOutRamNeorons[22] 
+ dataOutRamNeorons[21] dataOutRamNeorons[20] dataOutRamNeorons[19] 
+ dataOutRamNeorons[18] dataOutRamNeorons[17] dataOutRamNeorons[16] 
+ dataOutRamNeorons[15] dataOutRamNeorons[14] dataOutRamNeorons[13] 
+ dataOutRamNeorons[12] dataOutRamNeorons[11] dataOutRamNeorons[10] 
+ dataOutRamNeorons[9] dataOutRamNeorons[8] dataOutRamNeorons[7] 
+ dataOutRamNeorons[6] dataOutRamNeorons[5] dataOutRamNeorons[4] 
+ dataOutRamNeorons[3] dataOutRamNeorons[2] dataOutRamNeorons[1] 
+ dataOutRamNeorons[0] dmaAddRamWeights[15] dmaAddRamWeights[14] 
+ dmaAddRamWeights[13] dmaAddRamWeights[12] dmaAddRamWeights[11] 
+ dmaAddRamWeights[10] dmaAddRamWeights[9] dmaAddRamWeights[8] 
+ dmaAddRamWeights[7] dmaAddRamWeights[6] dmaAddRamWeights[5] 
+ dmaAddRamWeights[4] dmaAddRamWeights[3] dmaAddRamWeights[2] 
+ dmaAddRamWeights[1] dmaAddRamWeights[0] readRamWeights finishRamWeights 
+ dataOutRamWeights[79] dataOutRamWeights[78] dataOutRamWeights[77] 
+ dataOutRamWeights[76] dataOutRamWeights[75] dataOutRamWeights[74] 
+ dataOutRamWeights[73] dataOutRamWeights[72] dataOutRamWeights[71] 
+ dataOutRamWeights[70] dataOutRamWeights[69] dataOutRamWeights[68] 
+ dataOutRamWeights[67] dataOutRamWeights[66] dataOutRamWeights[65] 
+ dataOutRamWeights[64] dataOutRamWeights[63] dataOutRamWeights[62] 
+ dataOutRamWeights[61] dataOutRamWeights[60] dataOutRamWeights[59] 
+ dataOutRamWeights[58] dataOutRamWeights[57] dataOutRamWeights[56] 
+ dataOutRamWeights[55] dataOutRamWeights[54] dataOutRamWeights[53] 
+ dataOutRamWeights[52] dataOutRamWeights[51] dataOutRamWeights[50] 
+ dataOutRamWeights[49] dataOutRamWeights[48] dataOutRamWeights[47] 
+ dataOutRamWeights[46] dataOutRamWeights[45] dataOutRamWeights[44] 
+ dataOutRamWeights[43] dataOutRamWeights[42] dataOutRamWeights[41] 
+ dataOutRamWeights[40] dataOutRamWeights[39] dataOutRamWeights[38] 
+ dataOutRamWeights[37] dataOutRamWeights[36] dataOutRamWeights[35] 
+ dataOutRamWeights[34] dataOutRamWeights[33] dataOutRamWeights[32] 
+ dataOutRamWeights[31] dataOutRamWeights[30] dataOutRamWeights[29] 
+ dataOutRamWeights[28] dataOutRamWeights[27] dataOutRamWeights[26] 
+ dataOutRamWeights[25] dataOutRamWeights[24] dataOutRamWeights[23] 
+ dataOutRamWeights[22] dataOutRamWeights[21] dataOutRamWeights[20] 
+ dataOutRamWeights[19] dataOutRamWeights[18] dataOutRamWeights[17] 
+ dataOutRamWeights[16] dataOutRamWeights[15] dataOutRamWeights[14] 
+ dataOutRamWeights[13] dataOutRamWeights[12] dataOutRamWeights[11] 
+ dataOutRamWeights[10] dataOutRamWeights[9] dataOutRamWeights[8] 
+ dataOutRamWeights[7] dataOutRamWeights[6] dataOutRamWeights[5] 
+ dataOutRamWeights[4] dataOutRamWeights[3] dataOutRamWeights[2] 
+ dataOutRamWeights[1] dataOutRamWeights[0] fcDone MAXPrediction[3] 
+ MAXPrediction[2] MAXPrediction[1] MAXPrediction[0] 
XCNNDONEHOLDER RisingHolderFullCycle $PINS transition=beginSignal clk=clk 
+ rst=reset f=cnnDoneOneCycle 
XNEORONSLASTSTAGES CounterUpDown_16 $PINS load[15]=dataOutRamWeights[15] 
+ load[14]=dataOutRamWeights[14] load[13]=dataOutRamWeights[13] 
+ load[12]=dataOutRamWeights[12] load[11]=dataOutRamWeights[11] 
+ load[10]=dataOutRamWeights[10] load[9]=dataOutRamWeights[9] 
+ load[8]=dataOutRamWeights[8] load[7]=dataOutRamWeights[7] 
+ load[6]=dataOutRamWeights[6] load[5]=dataOutRamWeights[5] 
+ load[4]=dataOutRamWeights[4] load[3]=dataOutRamWeights[3] 
+ load[2]=dataOutRamWeights[2] load[1]=dataOutRamWeights[1] 
+ load[0]=dataOutRamWeights[0] resetValue[15]=oneNeoron_15 
+ resetValue[14]=oneNeoron_15 resetValue[13]=oneNeoron_15 
+ resetValue[12]=oneNeoron_15 resetValue[11]=oneNeoron_15 
+ resetValue[10]=oneNeoron_15 resetValue[9]=oneNeoron_15 
+ resetValue[8]=oneNeoron_15 resetValue[7]=oneNeoron_15 
+ resetValue[6]=oneNeoron_15 resetValue[5]=oneNeoron_15 
+ resetValue[4]=oneNeoron_15 resetValue[3]=oneNeoron_15 
+ resetValue[2]=oneNeoron_15 resetValue[1]=oneNeoron_15 
+ resetValue[0]=oneNeoron_15 clk=clk en=decrement rst=reset isLoad=nx1326 
+ upOrDown=oneNeoron_8 count[15]=numberOFNeorons_15 count[14]=numberOFNeorons_14 
+ count[13]=numberOFNeorons_13 count[12]=numberOFNeorons_12 
+ count[11]=numberOFNeorons_11 count[10]=numberOFNeorons_10 
+ count[9]=numberOFNeorons_9 count[8]=numberOFNeorons_8 
+ count[7]=numberOFNeorons_7 count[6]=numberOFNeorons_6 
+ count[5]=numberOFNeorons_5 count[4]=numberOFNeorons_4 
+ count[3]=numberOFNeorons_3 count[2]=numberOFNeorons_2 
+ count[1]=numberOFNeorons_1 count[0]=numberOFNeorons_0 
XNEORONREGMux Mux2_16 $PINS A[15]=dataOutRamNeorons[15] 
+ A[14]=dataOutRamNeorons[14] A[13]=dataOutRamNeorons[13] 
+ A[12]=dataOutRamNeorons[12] A[11]=dataOutRamNeorons[11] 
+ A[10]=dataOutRamNeorons[10] A[9]=dataOutRamNeorons[9] A[8]=dataOutRamNeorons[8] 
+ A[7]=dataOutRamNeorons[7] A[6]=dataOutRamNeorons[6] A[5]=dataOutRamNeorons[5] 
+ A[4]=dataOutRamNeorons[4] A[3]=dataOutRamNeorons[3] A[2]=dataOutRamNeorons[2] 
+ A[1]=dataOutRamNeorons[1] A[0]=dataOutRamNeorons[0] B[15]=oneNeoron_15 
+ B[14]=oneNeoron_15 B[13]=oneNeoron_15 B[12]=oneNeoron_15 B[11]=oneNeoron_15 
+ B[10]=oneNeoron_15 B[9]=oneNeoron_15 B[8]=oneNeoron_8 B[7]=oneNeoron_15 
+ B[6]=oneNeoron_15 B[5]=oneNeoron_15 B[4]=oneNeoron_15 B[3]=oneNeoron_15 
+ B[2]=oneNeoron_15 B[1]=oneNeoron_15 B[0]=oneNeoron_15 S=neoronValueSelection 
+ C[15]=neoronMuxOutput_15 C[14]=neoronMuxOutput_14 C[13]=neoronMuxOutput_13 
+ C[12]=neoronMuxOutput_12 C[11]=neoronMuxOutput_11 C[10]=neoronMuxOutput_10 
+ C[9]=neoronMuxOutput_9 C[8]=neoronMuxOutput_8 C[7]=neoronMuxOutput_7 
+ C[6]=neoronMuxOutput_6 C[5]=neoronMuxOutput_5 C[4]=neoronMuxOutput_4 
+ C[3]=neoronMuxOutput_3 C[2]=neoronMuxOutput_2 C[1]=neoronMuxOutput_1 
+ C[0]=neoronMuxOutput_0 
XMAXIMIZATIONMAP ngetMax_16_10 $PINS inputArray_9__15=labelReg_9__15 
+ inputArray_9__14=labelReg_9__14 inputArray_9__13=labelReg_9__13 
+ inputArray_9__12=labelReg_9__12 inputArray_9__11=labelReg_9__11 
+ inputArray_9__10=labelReg_9__10 inputArray_9__9=labelReg_9__9 
+ inputArray_9__8=labelReg_9__8 inputArray_9__7=labelReg_9__7 
+ inputArray_9__6=labelReg_9__6 inputArray_9__5=labelReg_9__5 
+ inputArray_9__4=labelReg_9__4 inputArray_9__3=labelReg_9__3 
+ inputArray_9__2=labelReg_9__2 inputArray_9__1=labelReg_9__1 
+ inputArray_9__0=labelReg_9__0 inputArray_8__15=labelReg_8__15 
+ inputArray_8__14=labelReg_8__14 inputArray_8__13=labelReg_8__13 
+ inputArray_8__12=labelReg_8__12 inputArray_8__11=labelReg_8__11 
+ inputArray_8__10=labelReg_8__10 inputArray_8__9=labelReg_8__9 
+ inputArray_8__8=labelReg_8__8 inputArray_8__7=labelReg_8__7 
+ inputArray_8__6=labelReg_8__6 inputArray_8__5=labelReg_8__5 
+ inputArray_8__4=labelReg_8__4 inputArray_8__3=labelReg_8__3 
+ inputArray_8__2=labelReg_8__2 inputArray_8__1=labelReg_8__1 
+ inputArray_8__0=labelReg_8__0 inputArray_7__15=labelReg_7__15 
+ inputArray_7__14=labelReg_7__14 inputArray_7__13=labelReg_7__13 
+ inputArray_7__12=labelReg_7__12 inputArray_7__11=labelReg_7__11 
+ inputArray_7__10=labelReg_7__10 inputArray_7__9=labelReg_7__9 
+ inputArray_7__8=labelReg_7__8 inputArray_7__7=labelReg_7__7 
+ inputArray_7__6=labelReg_7__6 inputArray_7__5=labelReg_7__5 
+ inputArray_7__4=labelReg_7__4 inputArray_7__3=labelReg_7__3 
+ inputArray_7__2=labelReg_7__2 inputArray_7__1=labelReg_7__1 
+ inputArray_7__0=labelReg_7__0 inputArray_6__15=labelReg_6__15 
+ inputArray_6__14=labelReg_6__14 inputArray_6__13=labelReg_6__13 
+ inputArray_6__12=labelReg_6__12 inputArray_6__11=labelReg_6__11 
+ inputArray_6__10=labelReg_6__10 inputArray_6__9=labelReg_6__9 
+ inputArray_6__8=labelReg_6__8 inputArray_6__7=labelReg_6__7 
+ inputArray_6__6=labelReg_6__6 inputArray_6__5=labelReg_6__5 
+ inputArray_6__4=labelReg_6__4 inputArray_6__3=labelReg_6__3 
+ inputArray_6__2=labelReg_6__2 inputArray_6__1=labelReg_6__1 
+ inputArray_6__0=labelReg_6__0 inputArray_5__15=labelReg_5__15 
+ inputArray_5__14=labelReg_5__14 inputArray_5__13=labelReg_5__13 
+ inputArray_5__12=labelReg_5__12 inputArray_5__11=labelReg_5__11 
+ inputArray_5__10=labelReg_5__10 inputArray_5__9=labelReg_5__9 
+ inputArray_5__8=labelReg_5__8 inputArray_5__7=labelReg_5__7 
+ inputArray_5__6=labelReg_5__6 inputArray_5__5=labelReg_5__5 
+ inputArray_5__4=labelReg_5__4 inputArray_5__3=labelReg_5__3 
+ inputArray_5__2=labelReg_5__2 inputArray_5__1=labelReg_5__1 
+ inputArray_5__0=labelReg_5__0 inputArray_4__15=labelReg_4__15 
+ inputArray_4__14=labelReg_4__14 inputArray_4__13=labelReg_4__13 
+ inputArray_4__12=labelReg_4__12 inputArray_4__11=labelReg_4__11 
+ inputArray_4__10=labelReg_4__10 inputArray_4__9=labelReg_4__9 
+ inputArray_4__8=labelReg_4__8 inputArray_4__7=labelReg_4__7 
+ inputArray_4__6=labelReg_4__6 inputArray_4__5=labelReg_4__5 
+ inputArray_4__4=labelReg_4__4 inputArray_4__3=labelReg_4__3 
+ inputArray_4__2=labelReg_4__2 inputArray_4__1=labelReg_4__1 
+ inputArray_4__0=labelReg_4__0 inputArray_3__15=labelReg_3__15 
+ inputArray_3__14=labelReg_3__14 inputArray_3__13=labelReg_3__13 
+ inputArray_3__12=labelReg_3__12 inputArray_3__11=labelReg_3__11 
+ inputArray_3__10=labelReg_3__10 inputArray_3__9=labelReg_3__9 
+ inputArray_3__8=labelReg_3__8 inputArray_3__7=labelReg_3__7 
+ inputArray_3__6=labelReg_3__6 inputArray_3__5=labelReg_3__5 
+ inputArray_3__4=labelReg_3__4 inputArray_3__3=labelReg_3__3 
+ inputArray_3__2=labelReg_3__2 inputArray_3__1=labelReg_3__1 
+ inputArray_3__0=labelReg_3__0 inputArray_2__15=labelReg_2__15 
+ inputArray_2__14=labelReg_2__14 inputArray_2__13=labelReg_2__13 
+ inputArray_2__12=labelReg_2__12 inputArray_2__11=labelReg_2__11 
+ inputArray_2__10=labelReg_2__10 inputArray_2__9=labelReg_2__9 
+ inputArray_2__8=labelReg_2__8 inputArray_2__7=labelReg_2__7 
+ inputArray_2__6=labelReg_2__6 inputArray_2__5=labelReg_2__5 
+ inputArray_2__4=labelReg_2__4 inputArray_2__3=labelReg_2__3 
+ inputArray_2__2=labelReg_2__2 inputArray_2__1=labelReg_2__1 
+ inputArray_2__0=labelReg_2__0 inputArray_1__15=labelReg_1__15 
+ inputArray_1__14=labelReg_1__14 inputArray_1__13=labelReg_1__13 
+ inputArray_1__12=labelReg_1__12 inputArray_1__11=labelReg_1__11 
+ inputArray_1__10=labelReg_1__10 inputArray_1__9=labelReg_1__9 
+ inputArray_1__8=labelReg_1__8 inputArray_1__7=labelReg_1__7 
+ inputArray_1__6=labelReg_1__6 inputArray_1__5=labelReg_1__5 
+ inputArray_1__4=labelReg_1__4 inputArray_1__3=labelReg_1__3 
+ inputArray_1__2=labelReg_1__2 inputArray_1__1=labelReg_1__1 
+ inputArray_1__0=labelReg_1__0 inputArray_0__15=labelReg_0__15 
+ inputArray_0__14=labelReg_0__14 inputArray_0__13=labelReg_0__13 
+ inputArray_0__12=labelReg_0__12 inputArray_0__11=labelReg_0__11 
+ inputArray_0__10=labelReg_0__10 inputArray_0__9=labelReg_0__9 
+ inputArray_0__8=labelReg_0__8 inputArray_0__7=labelReg_0__7 
+ inputArray_0__6=labelReg_0__6 inputArray_0__5=labelReg_0__5 
+ inputArray_0__4=labelReg_0__4 inputArray_0__3=labelReg_0__3 
+ inputArray_0__2=labelReg_0__2 inputArray_0__1=labelReg_0__1 
+ inputArray_0__0=labelReg_0__0 en=state_6 clk=clk rst=state_10 
+ outLabel[3]=maxNumber_3 outLabel[2]=maxNumber_2 outLabel[1]=maxNumber_1 
+ outLabel[0]=maxNumber_0 done=doneMax 
XALUMAP Alus8x16_10 $PINS q_9__7=dataOutRamWeights[79] 
+ q_9__6=dataOutRamWeights[78] q_9__5=dataOutRamWeights[77] 
+ q_9__4=dataOutRamWeights[76] q_9__3=dataOutRamWeights[75] 
+ q_9__2=dataOutRamWeights[74] q_9__1=dataOutRamWeights[73] 
+ q_9__0=dataOutRamWeights[72] q_8__7=dataOutRamWeights[71] 
+ q_8__6=dataOutRamWeights[70] q_8__5=dataOutRamWeights[69] 
+ q_8__4=dataOutRamWeights[68] q_8__3=dataOutRamWeights[67] 
+ q_8__2=dataOutRamWeights[66] q_8__1=dataOutRamWeights[65] 
+ q_8__0=dataOutRamWeights[64] q_7__7=dataOutRamWeights[63] 
+ q_7__6=dataOutRamWeights[62] q_7__5=dataOutRamWeights[61] 
+ q_7__4=dataOutRamWeights[60] q_7__3=dataOutRamWeights[59] 
+ q_7__2=dataOutRamWeights[58] q_7__1=dataOutRamWeights[57] 
+ q_7__0=dataOutRamWeights[56] q_6__7=dataOutRamWeights[55] 
+ q_6__6=dataOutRamWeights[54] q_6__5=dataOutRamWeights[53] 
+ q_6__4=dataOutRamWeights[52] q_6__3=dataOutRamWeights[51] 
+ q_6__2=dataOutRamWeights[50] q_6__1=dataOutRamWeights[49] 
+ q_6__0=dataOutRamWeights[48] q_5__7=dataOutRamWeights[47] 
+ q_5__6=dataOutRamWeights[46] q_5__5=dataOutRamWeights[45] 
+ q_5__4=dataOutRamWeights[44] q_5__3=dataOutRamWeights[43] 
+ q_5__2=dataOutRamWeights[42] q_5__1=dataOutRamWeights[41] 
+ q_5__0=dataOutRamWeights[40] q_4__7=dataOutRamWeights[39] 
+ q_4__6=dataOutRamWeights[38] q_4__5=dataOutRamWeights[37] 
+ q_4__4=dataOutRamWeights[36] q_4__3=dataOutRamWeights[35] 
+ q_4__2=dataOutRamWeights[34] q_4__1=dataOutRamWeights[33] 
+ q_4__0=dataOutRamWeights[32] q_3__7=dataOutRamWeights[31] 
+ q_3__6=dataOutRamWeights[30] q_3__5=dataOutRamWeights[29] 
+ q_3__4=dataOutRamWeights[28] q_3__3=dataOutRamWeights[27] 
+ q_3__2=dataOutRamWeights[26] q_3__1=dataOutRamWeights[25] 
+ q_3__0=dataOutRamWeights[24] q_2__7=dataOutRamWeights[23] 
+ q_2__6=dataOutRamWeights[22] q_2__5=dataOutRamWeights[21] 
+ q_2__4=dataOutRamWeights[20] q_2__3=dataOutRamWeights[19] 
+ q_2__2=dataOutRamWeights[18] q_2__1=dataOutRamWeights[17] 
+ q_2__0=dataOutRamWeights[16] q_1__7=dataOutRamWeights[15] 
+ q_1__6=dataOutRamWeights[14] q_1__5=dataOutRamWeights[13] 
+ q_1__4=dataOutRamWeights[12] q_1__3=dataOutRamWeights[11] 
+ q_1__2=dataOutRamWeights[10] q_1__1=dataOutRamWeights[9] 
+ q_1__0=dataOutRamWeights[8] q_0__7=dataOutRamWeights[7] 
+ q_0__6=dataOutRamWeights[6] q_0__5=dataOutRamWeights[5] 
+ q_0__4=dataOutRamWeights[4] q_0__3=dataOutRamWeights[3] 
+ q_0__2=dataOutRamWeights[2] q_0__1=dataOutRamWeights[1] 
+ q_0__0=dataOutRamWeights[0] m_9__15=nx1160 m_9__14=nx1170 m_9__13=nx1180 
+ m_9__12=nx1190 m_9__11=nx1200 m_9__10=nx1210 m_9__9=nx1220 m_9__8=nx1230 
+ m_9__7=nx1240 m_9__6=nx1250 m_9__5=nx1260 m_9__4=nx1270 m_9__3=nx1280 
+ m_9__2=nx1290 m_9__1=nx1300 m_9__0=nx1310 m_8__15=nx1160 m_8__14=nx1170 
+ m_8__13=nx1180 m_8__12=nx1190 m_8__11=nx1200 m_8__10=nx1210 m_8__9=nx1220 
+ m_8__8=nx1230 m_8__7=nx1240 m_8__6=nx1250 m_8__5=nx1260 m_8__4=nx1270 
+ m_8__3=nx1280 m_8__2=nx1290 m_8__1=nx1300 m_8__0=nx1310 m_7__15=nx1160 
+ m_7__14=nx1170 m_7__13=nx1180 m_7__12=nx1190 m_7__11=nx1200 m_7__10=nx1210 
+ m_7__9=nx1220 m_7__8=nx1230 m_7__7=nx1240 m_7__6=nx1250 m_7__5=nx1260 
+ m_7__4=nx1270 m_7__3=nx1280 m_7__2=nx1290 m_7__1=nx1300 m_7__0=nx1310 
+ m_6__15=nx1162 m_6__14=nx1172 m_6__13=nx1182 m_6__12=nx1192 m_6__11=nx1202 
+ m_6__10=nx1212 m_6__9=nx1222 m_6__8=nx1232 m_6__7=nx1242 m_6__6=nx1252 
+ m_6__5=nx1262 m_6__4=nx1272 m_6__3=nx1282 m_6__2=nx1292 m_6__1=nx1302 
+ m_6__0=nx1312 m_5__15=nx1162 m_5__14=nx1172 m_5__13=nx1182 m_5__12=nx1192 
+ m_5__11=nx1202 m_5__10=nx1212 m_5__9=nx1222 m_5__8=nx1232 m_5__7=nx1242 
+ m_5__6=nx1252 m_5__5=nx1262 m_5__4=nx1272 m_5__3=nx1282 m_5__2=nx1292 
+ m_5__1=nx1302 m_5__0=nx1312 m_4__15=nx1162 m_4__14=nx1172 m_4__13=nx1182 
+ m_4__12=nx1192 m_4__11=nx1202 m_4__10=nx1212 m_4__9=nx1222 m_4__8=nx1232 
+ m_4__7=nx1242 m_4__6=nx1252 m_4__5=nx1262 m_4__4=nx1272 m_4__3=nx1282 
+ m_4__2=nx1292 m_4__1=nx1302 m_4__0=nx1312 m_3__15=nx1164 m_3__14=nx1174 
+ m_3__13=nx1184 m_3__12=nx1194 m_3__11=nx1204 m_3__10=nx1214 m_3__9=nx1224 
+ m_3__8=nx1234 m_3__7=nx1244 m_3__6=nx1254 m_3__5=nx1264 m_3__4=nx1274 
+ m_3__3=nx1284 m_3__2=nx1294 m_3__1=nx1304 m_3__0=nx1314 m_2__15=nx1164 
+ m_2__14=nx1174 m_2__13=nx1184 m_2__12=nx1194 m_2__11=nx1204 m_2__10=nx1214 
+ m_2__9=nx1224 m_2__8=nx1234 m_2__7=nx1244 m_2__6=nx1254 m_2__5=nx1264 
+ m_2__4=nx1274 m_2__3=nx1284 m_2__2=nx1294 m_2__1=nx1304 m_2__0=nx1314 
+ m_1__15=nx1164 m_1__14=nx1174 m_1__13=nx1184 m_1__12=nx1194 m_1__11=nx1204 
+ m_1__10=nx1214 m_1__9=nx1224 m_1__8=nx1234 m_1__7=nx1244 m_1__6=nx1254 
+ m_1__5=nx1264 m_1__4=nx1274 m_1__3=nx1284 m_1__2=nx1294 m_1__1=nx1304 
+ m_1__0=nx1314 m_0__15=nx1166 m_0__14=nx1176 m_0__13=nx1186 m_0__12=nx1196 
+ m_0__11=nx1206 m_0__10=nx1216 m_0__9=nx1226 m_0__8=nx1236 m_0__7=nx1246 
+ m_0__6=nx1256 m_0__5=nx1266 m_0__4=nx1276 m_0__3=nx1286 m_0__2=nx1296 
+ m_0__1=nx1306 m_0__0=nx1316 f_9__15=labelReg_9__15 f_9__14=labelReg_9__14 
+ f_9__13=labelReg_9__13 f_9__12=labelReg_9__12 f_9__11=labelReg_9__11 
+ f_9__10=labelReg_9__10 f_9__9=labelReg_9__9 f_9__8=labelReg_9__8 
+ f_9__7=labelReg_9__7 f_9__6=labelReg_9__6 f_9__5=labelReg_9__5 
+ f_9__4=labelReg_9__4 f_9__3=labelReg_9__3 f_9__2=labelReg_9__2 
+ f_9__1=labelReg_9__1 f_9__0=labelReg_9__0 f_8__15=labelReg_8__15 
+ f_8__14=labelReg_8__14 f_8__13=labelReg_8__13 f_8__12=labelReg_8__12 
+ f_8__11=labelReg_8__11 f_8__10=labelReg_8__10 f_8__9=labelReg_8__9 
+ f_8__8=labelReg_8__8 f_8__7=labelReg_8__7 f_8__6=labelReg_8__6 
+ f_8__5=labelReg_8__5 f_8__4=labelReg_8__4 f_8__3=labelReg_8__3 
+ f_8__2=labelReg_8__2 f_8__1=labelReg_8__1 f_8__0=labelReg_8__0 
+ f_7__15=labelReg_7__15 f_7__14=labelReg_7__14 f_7__13=labelReg_7__13 
+ f_7__12=labelReg_7__12 f_7__11=labelReg_7__11 f_7__10=labelReg_7__10 
+ f_7__9=labelReg_7__9 f_7__8=labelReg_7__8 f_7__7=labelReg_7__7 
+ f_7__6=labelReg_7__6 f_7__5=labelReg_7__5 f_7__4=labelReg_7__4 
+ f_7__3=labelReg_7__3 f_7__2=labelReg_7__2 f_7__1=labelReg_7__1 
+ f_7__0=labelReg_7__0 f_6__15=labelReg_6__15 f_6__14=labelReg_6__14 
+ f_6__13=labelReg_6__13 f_6__12=labelReg_6__12 f_6__11=labelReg_6__11 
+ f_6__10=labelReg_6__10 f_6__9=labelReg_6__9 f_6__8=labelReg_6__8 
+ f_6__7=labelReg_6__7 f_6__6=labelReg_6__6 f_6__5=labelReg_6__5 
+ f_6__4=labelReg_6__4 f_6__3=labelReg_6__3 f_6__2=labelReg_6__2 
+ f_6__1=labelReg_6__1 f_6__0=labelReg_6__0 f_5__15=labelReg_5__15 
+ f_5__14=labelReg_5__14 f_5__13=labelReg_5__13 f_5__12=labelReg_5__12 
+ f_5__11=labelReg_5__11 f_5__10=labelReg_5__10 f_5__9=labelReg_5__9 
+ f_5__8=labelReg_5__8 f_5__7=labelReg_5__7 f_5__6=labelReg_5__6 
+ f_5__5=labelReg_5__5 f_5__4=labelReg_5__4 f_5__3=labelReg_5__3 
+ f_5__2=labelReg_5__2 f_5__1=labelReg_5__1 f_5__0=labelReg_5__0 
+ f_4__15=labelReg_4__15 f_4__14=labelReg_4__14 f_4__13=labelReg_4__13 
+ f_4__12=labelReg_4__12 f_4__11=labelReg_4__11 f_4__10=labelReg_4__10 
+ f_4__9=labelReg_4__9 f_4__8=labelReg_4__8 f_4__7=labelReg_4__7 
+ f_4__6=labelReg_4__6 f_4__5=labelReg_4__5 f_4__4=labelReg_4__4 
+ f_4__3=labelReg_4__3 f_4__2=labelReg_4__2 f_4__1=labelReg_4__1 
+ f_4__0=labelReg_4__0 f_3__15=labelReg_3__15 f_3__14=labelReg_3__14 
+ f_3__13=labelReg_3__13 f_3__12=labelReg_3__12 f_3__11=labelReg_3__11 
+ f_3__10=labelReg_3__10 f_3__9=labelReg_3__9 f_3__8=labelReg_3__8 
+ f_3__7=labelReg_3__7 f_3__6=labelReg_3__6 f_3__5=labelReg_3__5 
+ f_3__4=labelReg_3__4 f_3__3=labelReg_3__3 f_3__2=labelReg_3__2 
+ f_3__1=labelReg_3__1 f_3__0=labelReg_3__0 f_2__15=labelReg_2__15 
+ f_2__14=labelReg_2__14 f_2__13=labelReg_2__13 f_2__12=labelReg_2__12 
+ f_2__11=labelReg_2__11 f_2__10=labelReg_2__10 f_2__9=labelReg_2__9 
+ f_2__8=labelReg_2__8 f_2__7=labelReg_2__7 f_2__6=labelReg_2__6 
+ f_2__5=labelReg_2__5 f_2__4=labelReg_2__4 f_2__3=labelReg_2__3 
+ f_2__2=labelReg_2__2 f_2__1=labelReg_2__1 f_2__0=labelReg_2__0 
+ f_1__15=labelReg_1__15 f_1__14=labelReg_1__14 f_1__13=labelReg_1__13 
+ f_1__12=labelReg_1__12 f_1__11=labelReg_1__11 f_1__10=labelReg_1__10 
+ f_1__9=labelReg_1__9 f_1__8=labelReg_1__8 f_1__7=labelReg_1__7 
+ f_1__6=labelReg_1__6 f_1__5=labelReg_1__5 f_1__4=labelReg_1__4 
+ f_1__3=labelReg_1__3 f_1__2=labelReg_1__2 f_1__1=labelReg_1__1 
+ f_1__0=labelReg_1__0 f_0__15=labelReg_0__15 f_0__14=labelReg_0__14 
+ f_0__13=labelReg_0__13 f_0__12=labelReg_0__12 f_0__11=labelReg_0__11 
+ f_0__10=labelReg_0__10 f_0__9=labelReg_0__9 f_0__8=labelReg_0__8 
+ f_0__7=labelReg_0__7 f_0__6=labelReg_0__6 f_0__5=labelReg_0__5 
+ f_0__4=labelReg_0__4 f_0__3=labelReg_0__3 f_0__2=labelReg_0__2 
+ f_0__1=labelReg_0__1 f_0__0=labelReg_0__0 clk=clk start=decrement rst=nx1352 
+ done=#dummy[0] working=multiplyWorkIn 
XbufferRegOne FlibFlob $PINS D=multiplyWorkIn en=oneNeoron_8 clk=clkInverted 
+ rst=reset Q=bufferTwoInput Qbar=#dummy[1] 
XbufferRegTwo FlibFlob $PINS D=bufferTwoInput en=oneNeoron_8 clk=clk rst=reset 
+ Q=multiplyWorkDelayed Qbar=#dummy[2] 
XWeightAddressCounter CounterUpDown_16 $PINS load[15]=oneNeoron_15 
+ load[14]=oneNeoron_15 load[13]=oneNeoron_15 load[12]=oneNeoron_15 
+ load[11]=oneNeoron_15 load[10]=oneNeoron_15 load[9]=oneNeoron_15 
+ load[8]=oneNeoron_15 load[7]=oneNeoron_15 load[6]=oneNeoron_15 
+ load[5]=oneNeoron_15 load[4]=oneNeoron_15 load[3]=oneNeoron_15 
+ load[2]=oneNeoron_15 load[1]=oneNeoron_15 load[0]=oneNeoron_15 
+ resetValue[15]=oneNeoron_15 resetValue[14]=oneNeoron_15 
+ resetValue[13]=oneNeoron_15 resetValue[12]=oneNeoron_15 
+ resetValue[11]=oneNeoron_15 resetValue[10]=oneNeoron_15 
+ resetValue[9]=oneNeoron_15 resetValue[8]=oneNeoron_15 
+ resetValue[7]=oneNeoron_15 resetValue[6]=oneNeoron_15 
+ resetValue[5]=oneNeoron_15 resetValue[4]=oneNeoron_15 
+ resetValue[3]=oneNeoron_15 resetValue[2]=oneNeoron_15 
+ resetValue[1]=oneNeoron_15 resetValue[0]=oneNeoron_15 clk=clk 
+ en=incrementWeightAdd rst=reset isLoad=nx1318 upOrDown=oneNeoron_15 
+ count[15]=dmaAddRamWeights[15] count[14]=dmaAddRamWeights[14] 
+ count[13]=dmaAddRamWeights[13] count[12]=dmaAddRamWeights[12] 
+ count[11]=dmaAddRamWeights[11] count[10]=dmaAddRamWeights[10] 
+ count[9]=dmaAddRamWeights[9] count[8]=dmaAddRamWeights[8] 
+ count[7]=dmaAddRamWeights[7] count[6]=dmaAddRamWeights[6] 
+ count[5]=dmaAddRamWeights[5] count[4]=dmaAddRamWeights[4] 
+ count[3]=dmaAddRamWeights[3] count[2]=dmaAddRamWeights[2] 
+ count[1]=dmaAddRamWeights[1] count[0]=dmaAddRamWeights[0] 
XNeoronAddressCounter CounterUpDown_13 $PINS load[12]=defaultAddressNeorons[12] 
+ load[11]=defaultAddressNeorons[11] load[10]=defaultAddressNeorons[10] 
+ load[9]=defaultAddressNeorons[9] load[8]=defaultAddressNeorons[8] 
+ load[7]=defaultAddressNeorons[7] load[6]=defaultAddressNeorons[6] 
+ load[5]=defaultAddressNeorons[5] load[4]=defaultAddressNeorons[4] 
+ load[3]=defaultAddressNeorons[3] load[2]=defaultAddressNeorons[2] 
+ load[1]=defaultAddressNeorons[1] load[0]=defaultAddressNeorons[0] 
+ resetValue[12]=defaultAddressNeorons[12] 
+ resetValue[11]=defaultAddressNeorons[11] 
+ resetValue[10]=defaultAddressNeorons[10] resetValue[9]=defaultAddressNeorons[9] 
+ resetValue[8]=defaultAddressNeorons[8] resetValue[7]=defaultAddressNeorons[7] 
+ resetValue[6]=defaultAddressNeorons[6] resetValue[5]=defaultAddressNeorons[5] 
+ resetValue[4]=defaultAddressNeorons[4] resetValue[3]=defaultAddressNeorons[3] 
+ resetValue[2]=defaultAddressNeorons[2] resetValue[1]=defaultAddressNeorons[1] 
+ resetValue[0]=defaultAddressNeorons[0] clk=clk en=state_8 rst=reset 
+ isLoad=nx1352 upOrDown=oneNeoron_15 count[12]=dmaAddRamNeorons[12] 
+ count[11]=dmaAddRamNeorons[11] count[10]=dmaAddRamNeorons[10] 
+ count[9]=dmaAddRamNeorons[9] count[8]=dmaAddRamNeorons[8] 
+ count[7]=dmaAddRamNeorons[7] count[6]=dmaAddRamNeorons[6] 
+ count[5]=dmaAddRamNeorons[5] count[4]=dmaAddRamNeorons[4] 
+ count[3]=dmaAddRamNeorons[3] count[2]=dmaAddRamNeorons[2] 
+ count[1]=dmaAddRamNeorons[1] count[0]=dmaAddRamNeorons[0] 
XMAXVALUEREGMAP Reg_4 $PINS D[3]=maxNumber_3 D[2]=maxNumber_2 D[1]=maxNumber_1 
+ D[0]=maxNumber_0 en=oneNeoron_8 clk=doneMax rst=reset Q[3]=MAXPrediction[3] 
+ Q[2]=MAXPrediction[2] Q[1]=MAXPrediction[1] Q[0]=MAXPrediction[0] 
+ Qbar[3]=#dummy[3] Qbar[2]=#dummy[4] Qbar[1]=#dummy[5] Qbar[0]=#dummy[6] 
Xix35 oai21 $PINS Y=nx34 A0=finishRamWeights A1=nx1082 B0=nx1084 
Xreg_state_1 dffr $PINS Q=state_1 QB=nx1082 D=nx34 CLK=clk R=reset 
Xix1085 oai21 $PINS Y=nx1084 A0=state_0 A1=fcDone B0=nx1320 
Xreg_state_0 dffs_ni $PINS Q=state_0 QB=#dummy[7] D=nx20 CLK=clk S=reset 
Xreg_state_7 dffr $PINS Q=fcDone QB=#dummy[8] D=nx12 CLK=clk R=reset 
Xix13 ao22 $PINS Y=nx12 A0=doneMax A1=state_6 B0=nx1144 B1=fcDone 
Xreg_state_6 dffr $PINS Q=state_6 QB=#dummy[9] D=nx176 CLK=clk R=reset 
Xix177 ao21 $PINS Y=nx176 A0=nx1093 A1=state_6 B0=state_10 
Xix1094 inv01 $PINS Y=nx1093 A=doneMax 
Xreg_state_10 dffr $PINS Q=state_10 QB=#dummy[10] D=nx166 CLK=clk R=reset 
Xix161 or02 $PINS Y=nx160 A0=nx158 A1=decrement 
Xix159 nor03_2x $PINS Y=nx158 A0=nx1100 A1=nx1112 A2=nx152 
Xix1101 nor03_2x $PINS Y=nx1100 A0=nx1102 A1=finishRamNeorons 
+ A2=finishRamWeights 
Xix1105 nor04 $PINS Y=nx1104 A0=numberOFNeorons_0 A1=numberOFNeorons_1 
+ A2=numberOFNeorons_2 A3=numberOFNeorons_3 
Xix1107 nor04 $PINS Y=nx1106 A0=numberOFNeorons_4 A1=numberOFNeorons_5 
+ A2=numberOFNeorons_6 A3=numberOFNeorons_7 
Xix1109 nor04 $PINS Y=nx1108 A0=numberOFNeorons_8 A1=numberOFNeorons_9 
+ A2=numberOFNeorons_10 A3=numberOFNeorons_11 
Xix1111 nor04 $PINS Y=nx1110 A0=numberOFNeorons_12 A1=numberOFNeorons_13 
+ A2=numberOFNeorons_14 A3=numberOFNeorons_15 
Xreg_state_4 dffr $PINS Q=state_4 QB=nx1112 D=nx160 CLK=clk R=reset 
Xix153 nor04 $PINS Y=nx152 A0=finishRamNeorons A1=finishRamWeights A2=nx98 
+ A3=nx0 
Xix99 nand04 $PINS Y=nx98 A0=nx1104 A1=nx1106 A2=nx1108 A3=nx1110 
Xix133 or02 $PINS Y=decrement A0=state_8 A1=state_9 
Xreg_state_8 dffr $PINS Q=state_8 QB=#dummy[11] D=nx126 CLK=clk R=reset 
Xix127 nor02ii $PINS Y=nx126 A0=nx1120 A1=readRamNeorons 
Xix1121 nand03 $PINS Y=nx1120 A0=nx1122 A1=finishRamNeorons A2=finishRamWeights 
Xix1123 nand02 $PINS Y=nx1122 A0=multiplyWorkIn A1=multiplyWorkDelayed 
Xreg_state_5 dffr $PINS Q=readRamNeorons QB=#dummy[12] D=nx120 CLK=clk R=reset 
Xix121 ao22 $PINS Y=nx120 A0=readRamNeorons A1=nx1120 B0=state_4 B1=nx106 
Xix107 nor03_2x $PINS Y=nx106 A0=nx1102 A1=finishRamNeorons A2=finishRamWeights 
Xreg_state_9 dffr $PINS Q=state_9 QB=#dummy[13] D=nx1076 CLK=clk R=reset 
Xreg_state_3 dffr $PINS Q=state_3 QB=#dummy[14] D=nx54 CLK=clk R=reset 
Xix55 ao22 $PINS Y=nx54 A0=nx1133 A1=state_2 B0=state_3 B1=nx1138 
Xix1134 inv01 $PINS Y=nx1133 A=finishRamWeights 
Xreg_state_2 dffr $PINS Q=state_2 QB=#dummy[15] D=nx44 CLK=clk R=reset 
Xix45 ao21 $PINS Y=nx44 A0=finishRamWeights A1=state_2 B0=nx1326 
Xix1139 nand03 $PINS Y=nx1138 A0=nx1122 A1=finishRamWeights A2=state_3 
Xix1145 inv01 $PINS Y=nx1144 A=cnnDoneOneCycle 
Xix183 or02 $PINS Y=neoronValueSelection A0=state_3 A1=state_9 
Xix185 or02 $PINS Y=incrementWeightAdd A0=nx1326 A1=decrement 
Xix189 or03 $PINS Y=readRamWeights A0=state_3 A1=readRamNeorons A2=state_1 
Xix193 and02 $PINS Y=beginSignal A0=ioDone A1=cnnDone 
Xix1152 inv01 $PINS Y=clkInverted A=clk 
Xix1103 inv01 $PINS Y=nx1102 A=nx98 
Xix65 inv01 $PINS Y=nx1076 A=nx1138 
Xix1 inv01 $PINS Y=nx0 A=nx1122 
Xix1157 inv01 $PINS Y=nx1158 A=neoronMuxOutput_15 
Xix1159 inv01 $PINS Y=nx1160 A=nx1158 
Xix1161 inv01 $PINS Y=nx1162 A=nx1158 
Xix1163 inv01 $PINS Y=nx1164 A=nx1158 
Xix1165 inv01 $PINS Y=nx1166 A=nx1158 
Xix1167 inv01 $PINS Y=nx1168 A=neoronMuxOutput_14 
Xix1169 inv01 $PINS Y=nx1170 A=nx1168 
Xix1171 inv01 $PINS Y=nx1172 A=nx1168 
Xix1173 inv01 $PINS Y=nx1174 A=nx1168 
Xix1175 inv01 $PINS Y=nx1176 A=nx1168 
Xix1177 inv01 $PINS Y=nx1178 A=neoronMuxOutput_13 
Xix1179 inv01 $PINS Y=nx1180 A=nx1178 
Xix1181 inv01 $PINS Y=nx1182 A=nx1178 
Xix1183 inv01 $PINS Y=nx1184 A=nx1178 
Xix1185 inv01 $PINS Y=nx1186 A=nx1178 
Xix1187 inv01 $PINS Y=nx1188 A=neoronMuxOutput_12 
Xix1189 inv01 $PINS Y=nx1190 A=nx1188 
Xix1191 inv01 $PINS Y=nx1192 A=nx1188 
Xix1193 inv01 $PINS Y=nx1194 A=nx1188 
Xix1195 inv01 $PINS Y=nx1196 A=nx1188 
Xix1197 inv01 $PINS Y=nx1198 A=neoronMuxOutput_11 
Xix1199 inv01 $PINS Y=nx1200 A=nx1198 
Xix1201 inv01 $PINS Y=nx1202 A=nx1198 
Xix1203 inv01 $PINS Y=nx1204 A=nx1198 
Xix1205 inv01 $PINS Y=nx1206 A=nx1198 
Xix1207 inv01 $PINS Y=nx1208 A=neoronMuxOutput_10 
Xix1209 inv01 $PINS Y=nx1210 A=nx1208 
Xix1211 inv01 $PINS Y=nx1212 A=nx1208 
Xix1213 inv01 $PINS Y=nx1214 A=nx1208 
Xix1215 inv01 $PINS Y=nx1216 A=nx1208 
Xix1217 inv01 $PINS Y=nx1218 A=neoronMuxOutput_9 
Xix1219 inv01 $PINS Y=nx1220 A=nx1218 
Xix1221 inv01 $PINS Y=nx1222 A=nx1218 
Xix1223 inv01 $PINS Y=nx1224 A=nx1218 
Xix1225 inv01 $PINS Y=nx1226 A=nx1218 
Xix1227 inv01 $PINS Y=nx1228 A=neoronMuxOutput_8 
Xix1229 inv01 $PINS Y=nx1230 A=nx1228 
Xix1231 inv01 $PINS Y=nx1232 A=nx1228 
Xix1233 inv01 $PINS Y=nx1234 A=nx1228 
Xix1235 inv01 $PINS Y=nx1236 A=nx1228 
Xix1237 inv01 $PINS Y=nx1238 A=neoronMuxOutput_7 
Xix1239 inv01 $PINS Y=nx1240 A=nx1238 
Xix1241 inv01 $PINS Y=nx1242 A=nx1238 